# generated using pymatgen
data_MgO
_symmetry_space_group_name_H-M   'P 1'
_cell_length_a   5.63040361
_cell_length_b   5.56434936
_cell_length_c   3.34898154
_cell_angle_alpha   90.000000
_cell_angle_beta   90.0000000
_cell_angle_gamma   108.900000
_symmetry_Int_Tables_number   1
_chemical_formula_structural   MgO
_chemical_formula_sum   'Mg4 O4'
_cell_volume   99.24002491
_cell_formula_units_Z   4
loop_
 _symmetry_equiv_pos_site_id
 _symmetry_equiv_pos_as_xyz
  1  'x, y, z'
loop_
 _atom_site_type_symbol
 _atom_site_label
 _atom_site_symmetry_multiplicity
 _atom_site_fract_x
 _atom_site_fract_y
 _atom_site_fract_z
 _atom_site_occupancy
  Mg  Mg0  1  0.00000000  0.00000000  0.00000000  1
  Mg  Mg1  1  0.00000000  0.50000000  0.50000000  1
  Mg  Mg2  1  0.50000000  0.00000000  0.50000000  1
  Mg  Mg3  1  0.50000000  0.50000000  0.00000000  1
  O  O4  1  0.1250000000  0.37500000  0.00000000  1
  O  O5  1  0.1250000000 -0.12500000  0.50000000  1
  O  O6  1  0.6250000000  0.37500000  0.50000000  1
  O  O7  1  0.6250000000 -0.12500000  0.00000000  1
