# generated using pymatgen
data_Li5BiO5
_symmetry_space_group_name_H-M   'P 1'
_cell_length_a   5.68685052
_cell_length_b   5.95709443
_cell_length_c   4.19253052
_cell_angle_alpha   90.16775989
_cell_angle_beta   73.27910806
_cell_angle_gamma   93.08134747
_symmetry_Int_Tables_number   1
_chemical_formula_structural   Li5BiO5
_chemical_formula_sum   'Li5 Bi1 O5'
_cell_volume   135.81706738
_cell_formula_units_Z   1
loop_
 _symmetry_equiv_pos_site_id
 _symmetry_equiv_pos_as_xyz
  1  'x, y, z'
loop_
 _atom_site_type_symbol
 _atom_site_label
 _atom_site_symmetry_multiplicity
 _atom_site_fract_x
 _atom_site_fract_y
 _atom_site_fract_z
 _atom_site_occupancy
  Li  Li0  1  0.45000351  0.56534934  0.78708845  1.0
  Li  Li1  1  0.91720721  0.52307646  0.92352127  1.0
  Li  Li2  1  0.28747431  0.27690415  0.28787888  1.0
  Li  Li3  1  0.46523491  0.05023977  0.76468423  1.0
  Li  Li4  1  0.12976726  0.77468888  0.37466483  1.0
  Bi  Bi5  1  0.92447380  0.03684034  0.93058504  1.0
  O  O6  1  0.21166415  0.30751879  0.80755995  1.0
  O  O7  1  0.01239622  0.06957249  0.39847738  1.0
  O  O8  1  0.62925187  0.24625725  0.06218928  1.0
  O  O9  1  0.72798796  0.74482070  0.81133990  1.0
  O  O10  1  0.20620506  0.78676276  0.86436061  1.0
