# generated using pymatgen
data_Li5BiO5
_symmetry_space_group_name_H-M   'P 1'
_cell_length_a   5.41314742
_cell_length_b   4.10879341
_cell_length_c   5.96582428
_cell_angle_alpha   85.50498634
_cell_angle_beta   97.75423087
_cell_angle_gamma   110.57082216
_symmetry_Int_Tables_number   1
_chemical_formula_structural   Li5BiO5
_chemical_formula_sum   'Li5 Bi1 O5'
_cell_volume   123.02393202
_cell_formula_units_Z   1
loop_
 _symmetry_equiv_pos_site_id
 _symmetry_equiv_pos_as_xyz
  1  'x, y, z'
loop_
 _atom_site_type_symbol
 _atom_site_label
 _atom_site_symmetry_multiplicity
 _atom_site_fract_x
 _atom_site_fract_y
 _atom_site_fract_z
 _atom_site_occupancy
  Li  Li0  1  0.13115821  0.02252724  0.91852160  1.0
  Li  Li1  1  0.85444394  0.40280908  0.62806292  1.0
  Li  Li2  1  0.87999345  0.38572082  0.08616125  1.0
  Li  Li3  1  0.00762965  0.92161404  0.35319171  1.0
  Li  Li4  1  0.35545854  0.57617338  0.64631026  1.0
  Bi  Bi5  1  0.46158651  0.67131683  0.18609983  1.0
  O  O6  1  0.46165824  0.17912003  0.10996746  1.0
  O  O7  1  0.17413922  0.56816819  0.88226795  1.0
  O  O8  1  0.12314778  0.45020214  0.37913224  1.0
  O  O9  1  0.82149865  0.85763773  0.05561510  1.0
  O  O10  1  0.68689592  0.75866289  0.52316731  1.0
